<!DOCTYPE html>
<html lang="en">
<head>
  <meta http-equiv="Content-Type" content="text/html; charset=utf-8">
  <title>[TITLE]</title>
  <meta name="viewport" content="width=device-width, initial-scale=1, shrink-to-fit=no">
  <link rel="stylesheet" href="documentation/site.css">
  <style data-fill-with="stylesheet">
  </style>
</head>
<body class="h-entry">
<div class="head">
  <p data-fill-with="logo"></p>
  <h1 id="title" class="p-name no-ref">[TITLE]</h1>
  <h2 id="profile-and-date" class="no-num no-toc no-ref">[LONGSTATUS],
    <time class="dt-updated" datetime="[ISODATE]">[DATE]</time></h2>
  <div data-fill-with="spec-metadata"></div>
  <div data-fill-with="warning"></div>
  <p class='copyright' data-fill-with='copyright'></p>
  <hr title="Separator for header">
</div>

<div class="p-summary" data-fill-with="abstract"></div>
<div data-fill-with="at-risk"></div>

<section class="changelog-top" id="changelog">
  <h2 class="heading no-num no-ref no-toc settled" id="changelog-heading"><span class="content">Changelog</span></h2>
<table class="data changelog">
  <thead>
    <tr><th>Version<th>Date<th>Summary of changes</tr>
  </thead>
  <tbody>
    <tr>
      <td>1.0.0
      <td>2026-07-05
      <td>Initial version. Defines the OpenFASTER family and specifies the
          MiKaDiv Third-Party Disclosure module: data model, linking model,
          conformance requirements, and the full data dictionary and
          enumerations generated from the VIB MiKaDiv XSD, with an accompanying
          self-documenting Excel template.
    </tr>
  </tbody>
</table>
</section>

<nav data-fill-with="table-of-contents" id="toc"></nav>
<main>
